<?xml version="1.0" encoding="UTF-8"?>

<!-- generated on 2023-07-16 15:59:29 by Eclipse SUMO GUI Version 1.17.0
<configuration xmlns:xsi="http://www.w3.org/2001/XMLSchema-instance" xsi:noNamespaceSchemaLocation="http://sumo.dlr.de/xsd/sumoConfiguration.xsd">

    <input>
        <net-file value="./resco_benchmark/environments/corniche/Corniche_base.net.xml"/>
        <route-files value="./resco_benchmark/environments/corniche/trips_31_01_2018.xml"/>
        <additional-files value="./resco_benchmark/environments/corniche/Corniche_edge_in_districts.taz.xml"/>
    </input>

    <output>
        <tripinfo-output.write-unfinished value="true"/>
        <statistic-output value="./resco_benchmark/results/Average_Cat_ADAC_traffic10-tr0-corniche-0-wave-wait/tripinfo_1.xml"/>
    </output>

    <time>
        <begin value="1400"/>
        <end value="5000"/>
        <step-length value="1"/>
    </time>

    <processing>
        <ignore-junction-blocker value="3"/>
        <ignore-route-errors value="true"/>
        <collision.action value="remove"/>
        <collision.check-junctions value="true"/>
        <collision.mingap-factor value="0"/>
        <scale value="10"/>
        <time-to-teleport value="-1"/>
        <default.action-step-length value="1"/>
    </processing>

    <report>
        <no-warnings value="True"/>
        <duration-log.statistics value="True"/>
        <no-step-log value="True"/>
    </report>

    <traci_server>
        <remote-port value="54713"/>
    </traci_server>

    <random_number>
        <seed value="3000"/>
    </random_number>

    <gui_only>
        <gui-settings-file value="./resco_benchmark/environments/corniche/gui.settings.xml"/>
        <start value="true"/>
    </gui_only>

</configuration>
-->

<statistics xmlns:xsi="http://www.w3.org/2001/XMLSchema-instance" xsi:noNamespaceSchemaLocation="http://sumo.dlr.de/xsd/statistic_file.xsd">
    <performance clockBegin="1689512369.34" clockEnd="1689512416.21" clockDuration="46.87" traciDuration="33.40" realTimeFactor="76.80" vehicleUpdatesPerSecond="17052.35" personUpdatesPerSecond="0.00" begin="1400.00" end="5000.00" duration="3600.00"/>
    <vehicles loaded="3360" inserted="3336" running="262" waiting="4"/>
    <teleports total="0" jam="0" yield="0" wrongLane="0"/>
    <safety collisions="12" emergencyStops="2"/>
    <persons loaded="0" running="0" jammed="0"/>
    <personTeleports total="0" abortWait="0" wrongDest="0"/>
    <vehicleTripStatistics count="3336" routeLength="2830.63" speed="11.21" duration="239.60" waitingTime="44.72" timeLoss="102.63" departDelay="29.41" departDelayWaiting="31.00" totalTravelTime="799295.00" totalDepartDelay="98232.00"/>
    <pedestrianStatistics number="0" routeLength="0.00" duration="0.00" timeLoss="0.00"/>
    <rideStatistics number="0"/>
    <transportStatistics number="0"/>
</statistics>
