<?xml version="1.0" encoding="UTF-8"?>
<!-- generated on 2023-07-12 14:56:50.889846 by edgesInDistricts.py v1_6_0+0000-eb35ef008a
  options: -n Corniche_base.net.xml -t corniche_taz.add.xml -i -o Corniche_edge_in_districts.taz.xml -f -v
-->
<tazs xmlns:xsi="http://www.w3.org/2001/XMLSchema-instance" xsi:noNamespaceSchemaLocation="http://sumo.dlr.de/xsd/taz_file.xsd">
    <taz id="1001001" edges="72041 72070 77121 77142"/>
    <taz id="1001002" edges="71884"/>
    <taz id="1001003" edges="71919 72040"/>
    <taz id="1001004" edges="171823 172203 176941 71714 71762 72104 72136 72137 72203 72204 72231 75684 75685 75834 76939 76940 76943 76960 76961 76962 76963 76964"/>
    <taz id="1001005" edges="171822 175484 71573 71822 75483 75484 76932"/>
    <taz id="1001007" edges="175685 176944 71823 71856 72009 76941 76942 76944 76946 76947 76948"/>
    <taz id="1001008" edges="176932 176953 71545 71546 71549 75910 76945 76951 76952 76953"/>
    <taz id="1001009" edges="179326 71713 71739 71760 71788 71882 71917 71979 71981 72007 72008 72039 75686 75687 75688 75689 75913 75914 76934 76935 76936 76937 76938 76955 76956 76957 76958 76959 77098 77134"/>
    <taz id="1001010" edges="176780 176815 176822 176832 176840 176841 176846 176849 176850 177020 177023 177024 177025 179324 179325 179327 179328 179329 76815 76822 76832 76840 76841 76846 76849 76850 77020 77023 77024 77025 79324 79325 79326 79327 79328 79329"/>
    <taz id="1002001" edges="171824 172169 175670 71763 71789 71824 72138 75670 75829 76859 76860 77102"/>
    <taz id="1002002" edges="172010 172205 172233 175690 176358 177081 177082 177088 177095 71764 71765 71790 71825 72010 72042 72139 72205 72233 76358 76465 77067 77068 77069 77071 77077 77078 77079 77080 77081 77082 77083 77084 77085 77086 77087 77088 77089 77128 79273 79274"/>
    <taz id="1002003" edges="171674 171685 172265 176469 177089 71658 71674 71676 71678 71679 71682 71685 71923 72105 72169 72232 72265 75690 75836 75837 76466 76467 76468 76469 76470 77063 77064 77065 77066 77075 77090 77091 77092 77093 77094 77095"/>
    <taz id="1003006" edges="176282 176368 72201 76368"/>
    <taz id="1003011" edges="71740 71826 71858 71924 76857"/>
    <taz id="1003013" edges="171740 176284 176480 71918 76284 76471"/>
    <taz id="1003016" edges="171918 76480 77106 77107 77108 77113"/>
    <taz id="1003017" edges="71922 71950 71982 77114 77117 77143"/>
    <taz id="1007001" edges="177048 75485 75486 77050 77058 77060"/>
    <taz id="1007002" edges="177047 71817.4 76975.3 76987 77048 77051 77052 77053 77055 77057 E3 E4"/>
    <taz id="1007003" edges="176965 76965 77006 77007 77008"/>
    <taz id="1007004" edges="-175525 175525 71547 71548 71550 71551 71552 72132 72163 75526 76970 76971 76972 76973 76974 76976 76977 76978 76979 76981 76984 77047 77049 77054 77056 77059 E5"/>
    <taz id="1007005" edges="176994 71914 71976 75537 76494 76988 76989 76990 76991 76992 76993 76994 76995 76996 76997 76998 76999 77009 77010 77061 E6"/>
    <taz id="1007006" edges="71553 71554 71555 71821 71854 71883 71947 71977 72005 72036 72037 72099 72165 75541 75911 75912 76492 76493 76949 76950 77001 77004 77005 77131 77314 90139 90140 90141 90142"/>
    <taz id="1012003" edges="171661 171673 177450 177453 71656 71661 71664 71673 71680 71683 75631 75835 76383 76501 76502 76858 77435 77444 77450 77453 77461 77463 77464"/>
    <taz id="1012006" edges="177441 177442 177456 177458 77439 77441 77442 77456 79347"/>
    <taz id="1012008" edges="177439 177449 77449 77459 77460 77462"/>
    <taz id="1012010" edges="171684 176453 71668 71670 75400 76450 76451 76452 76453 77337 79272"/>
    <taz id="1012011" edges="177436 177446 177447 177452 177455 77436 77445 77447 77452 77455 77458 79348 79349 79350 79351 E17"/>
    <taz id="1012016" edges="177333 71684 76287 76498 77333 77334 77336"/>
    <taz id="1012017" edges="177338 76214 76499 77332 77335 77338 77339 79271 79337 79338 79339 79340 79341"/>
    <taz id="1012018" edges="77413 77422"/>
    <taz id="1012020" edges="177399 177400 177404 177413 177419 177420 177422 177423 177424 77399 77404 77417 77419 77420 77423 77424 77433 77434 79352 79353 79354 79355 E15 E16"/>
    <taz id="1012021" edges="71645 76306 76307 76504 89669 89670"/>
    <taz id="1012024" edges="-gneE17 77432.140 gneE17"/>
    <taz id="1012026" edges="76213 76217 77320 77321 77322 77340 77341 77354 77393 77394 77395 77396 77426 77427 77428 77429 79342 79343 79344 79345 79346"/>
    <taz id="1012027" edges="177364 177368 77364 77368 77370 77391"/>
    <taz id="1012028" edges="77359 77374 77376 77400 77430 77431 77432"/>
    <taz id="1012029" edges="76212 77323 77324 77325 77326 77329"/>
    <taz id="1012033" edges="76877"/>
    <taz id="1012034" edges="177363 177367 76437 76440 76441 76459 77363 77369 77386 77387 77388 77389 77390 77392"/>
    <taz id="1013017" edges="72011 72043 72106 75830"/>
    <taz id="1018001" edges="171852 171974 172098 172131 71852 71974 72098 72131 77934 77935 77936"/>
    <taz id="1018002" edges="177942 177950 177953 177960 77942 77947 77948 77949 77953 77960 77970 77971 77972 77975 77976 77977 78261 78262 78263"/>
    <taz id="1018003" edges="171709 171736 171758 171816 171851 171879 171910 172258 71709 71736 71758 71816 71851 71879 71910 72258 75536 77304 77307 77308 77309 77937 77938 77939 77940 77941 78216"/>
    <taz id="1018004" edges="171737 171787 171911 172197 175452 71787 71911 72197 75452 75941 77980 78042 78046 78047"/>
    <taz id="1018005" edges="171710 172035 177995 178008 178009 178017 178020 178026 178027 71710 71737 77984 77986 77988 77992 77993 77995 77997 77998 78001 78008 78009 78011 78012 78015 78017 78019 78020 78026 78027 78036 78038 78043 E12 E14"/>
    <taz id="1018006" edges="177933 177945 177946 77931 77945 77962 78217 78218"/>
    <taz id="1018007" edges="72229 72259 76338 76340 77982 77996 78013 78014 78039 78040 78041 78238 89000 E18"/>
    <taz id="1018008" edges="171815 175945 177947 177948 177949 177951 71815 75944 75945 76456 77932 77933 77946 77950 77951 77963 77964 77965 77966 77967 77968 77969 78028"/>
    <taz id="1018009" edges="178000 178002 178006 178007 178010 178022 178023 178024 178032 178033 178034 178035 76336 76337 77981 77983 77985 77987 78000 78002 78004 78005 78006 78007 78010 78016 78018 78022 78023 78024 78029 78030 78031 78032 78033 78034 78035 78036.14 78037 88999 E13"/>
    <taz id="1019001" edges="176767 176769 176770 176775 176776 176782 176784 176785 176786 176787 176788 176791 176795 176798 176801 176804 176805 176806 176811 176813 176816 176819 176823 176827 176828 176830 176834 176837 176843 177027 177028 177029 177030 177031 71820 76766 76767 76769 76770 76771 76772 76775 76776 76777 76781 76782 76784 76785 76786 76787 76788 76791 76793 76795 76798 76799 76801 76803 76804 76805 76806 76811 76813 76816 76819 76821 76823 76827 76828 76830 76834 76837 76843 76845 77003 77026 77027 77028 77029 77030 77031 77034 77045 77046 77302 77303 77305 77306 77316 77317 77318 78214 78215 78219 79331"/>
    <taz id="1019002" edges="176768 176774 176778 176779 176790 176793 176796 176797 176800 176802 176807 176808 176809 176810 176818 176820 176824 176825 176826 176831 176833 176835 176836 176838 176844 176848 176851 176852 177032 177033 177035 177036 177037 177038 177039 177040 177041 178231 72200 72261 75730 76533 76768 76773 76774 76778 76779 76789 76790 76792 76796 76797 76800 76802 76807 76808 76809 76810 76817 76818 76820 76824 76825 76826 76829 76831 76833 76835 76836 76838 76839 76842 76844 76848 76851 76852 77021 77022 77032 77033 77035 77036 77037 77038 77039 77040 77041 77042 77043 77044 78220 78221 78226 78229 78230 78231 78232 78233 78235 78236 78237 79330"/>
    <taz id="1028003" edges="78234"/>
    <taz id="1060001" edges="171651 190143 190144 190145 190147 190148 190152 190158 190159 190160 190161 190162 190163 190164 190165 190166 190169 71613 71651 76385 76878 76879 77342 77343 77352 77356 77357 77358 77384 78196 78199 78200 78201 78202 78203 88608 90137 90138 90143 90144 90145 90146 90147 90148 90150 90152 90153 90154 90155 90156 90158 90159 90160 90161 90162 90163 90164 90165 90166 90167 90168 90169"/>
    <taz id="1060002" edges="108744 5319 5351 6063 6084 6095 6096 6097 6497 6498 6499 6534 76435 76442 76443 8738 8739 8740 8741 8742 8743 8744 8750 8751 8752 8753 88609 88610 88611 88612"/>
    <taz id="1060003" edges="105316 105354 106492 108846 5317 5320 5353 5354 6086 6093 6094 6492 6495 6527 8841 8844 8845 8846"/>
    <taz id="1060004" edges="5339 5340 6496 6500 6529 8748 8757 8840 8842 8843"/>
    <taz id="1060005" edges="5341 5342 6723 8828 8832 8834 8835 8836 8839"/>
    <taz id="1060006" edges="105267 105315 106494 108768 108841 5267 5315 5316 6099 6494 6525 6530 6536 6599 8761 8762 8763 8764 8765 8766 8767 8770 8826 8829 8830 8831 8837 8838"/>
    <taz id="1060007" edges="108802 108803 5298 6724 8747 8749 8756 8758 8790 8793 8795 8796 8797 8798 8799 8800 8801 8802 8803 8806 8807 8808 8809 8833 8847"/>
    <taz id="1060008" edges="105344 108828 5312 5314 5343 5344 5352 8819 8824 8825 8827"/>
    <taz id="1060009" edges="105313 5308 5310 5311 5313 5345 6105 6106 6107 6111 6600 6602 8768 8769 8775 8785 8786 8787 8820 8823"/>
    <taz id="1060010" edges="108821 6493 8776 8779 8780 8781 8782 8818 8821 8822"/>
    <taz id="1061001" edges="5350 6108 6109 6523 8789 8927 8935 8936 8937 8938"/>
    <taz id="1061002" edges="6601 8777 8778 8783 8784 8788 8814 8815 8816 8920 8922 8925 8928"/>
    <taz id="1061003" edges="4376 8926 8929 8930 8931"/>
    <taz id="1061004" edges="108849 108850 108851 108897 108908 108909 108910 108911 403 404 8791 8792 8794 8817 8849 8850 8851 8852 8853 8856 8857 8862 8865 8866 8868 8870 8873 8879 8882 8883 8884 8885 8888 8891 8892 8893 8896 8897 8898 8899 8900 8902 8903 8904 8905 8908 8909 8910 8911 8915 8917 8918 8921"/>
    <taz id="1061005" edges="108949 3617 397 400 4376.5 6544 6725 6726 6727 6728 8880 8881 8919 8924 8932 8933 8934 8939 8940 8941 8942 8943 8949 8950"/>
    <taz id="1061006" edges="108950 108951 394 395 396 4220 4224 4227 4232 6113 6281 88872 8951 8954 8955 8969 8970 gneE22"/>
    <taz id="1061007" edges="104251 104252 104253 104254 104255 129 4210 4222 4225 4230 4236 4237 4238 4244 4245 4246 4247 4248 4249 4250 4251 4252 4253 4254 4255 4260 4261 4262 4263 6279 6282 6285 6718 9071 9072 9073 9074"/>
    <taz id="1061008" edges="104346 104347 104348 4297 4298 4301 4346 4347 4348 4356 4360 4361 4369 4370 8973 8974 8975 8976 8977 9003 9027 9028 9029"/>
    <taz id="1061009" edges="104274 104275 104276 104279 104280 4229 4234 4235 4274 4275 4276 4277 4279 4280 4296 4299 4300 4330 4331 4332 4333 4338 6278 6286 8956 8957 8960 8971 9040 9041"/>
    <taz id="1061010" edges="109054 4213 4217 4218 4228 4256 4257 4258 4259 4264 4265 4266 4267 4269 4400 9054 9055 9056 9057 9058 9059 9062 9063 9064 9069 9070"/>
    <taz id="1061011" edges="4202 4205 4206 4208 549 558 588 6705 9206"/>
    <taz id="1061012" edges="4278 4323 4324 4325 4326 4327 4328 4329 4334 4335 4336 4337 4402 4407 9018 9019 9030 9038 9039 9068"/>
    <taz id="1061013" edges="108912 108913 108916 108985 3819 3820 3821 3822 3823 3824 4401 6288 8912 8913 8914 8916 8985 8986 8988 8989 8990 8993 8994 8996 8997 8999 gneE25"/>
    <taz id="1061014" edges="4340 4343 4344 4349 4350 4351 4352 4353 4354 4355 4357 4358 4359 4362 4363 4364 4365 4366 4368 4372 4375 6284 6287 6714 8978 8979 8982 8987 8991 8992 8995 8998 9000 9001 9006 9007 9008 9011 9012 9013 9014 9015 9016 9022 9034 9035 9036 9037"/>
    <taz id="1061015" edges="4201 4203 4204 4240 9075 9621 9622 9623 9624"/>
    <taz id="1061016" edges="4312 4314 4403"/>
    <taz id="1061017" edges="4214 4215 4216 4219 4268 4306 4307 4308 4309 4310 4316 4317 4319 4321 4404 4406 4409 4410 4414 4415 9050"/>
    <taz id="1061018" edges="4311 4313 4315 4408 9066 9067"/>
    <taz id="1061019" edges="-100015 -15"/>
    <taz id="1061020" edges="4318 4320 4322 4339 4341 4342 4405 4411 4412 4413 9009 9017 9044 9045 9046 9047 9048"/>
    <taz id="1061021" edges="9043 9049 9051 9052 9053"/>
    <taz id="1061022" edges="9042"/>
    <taz id="1062001" edges="108730 76381 gneE20 gneE21"/>
    <taz id="1062002" edges="105266 188614 5266 6102 6104 6501 6503 6528 6532 76379 76380 76382 76436 76438 76439 8736 8737 88613 gneE18 gneE19"/>
    <taz id="1062003" edges="105262 106502 5261 5262 5263 5356 5368 5369 6062 6502 8730 8733 8734 8735 88614"/>
    <taz id="1063001" edges="100384 100385 100386 100387 100388 100389 100390 100391 100392 106139 106140 384 385 386 387 388 389 390 391 392 6087 6098 6100 6101 6103 6139 6140 6537 8774 9102 9103 9104 9131 9136 9138 9140 9141"/>
    <taz id="1063002" edges="5359 5360 9078 9081"/>
    <taz id="1063003" edges="109106 109115 4397 6531 8772 8773 9091 9092 9093 9095 9106 9112 9113 9114 9115 9116 9117"/>
    <taz id="1063004" edges="364 9100 9109 9134"/>
    <taz id="1063005" edges="109151 4391 6603"/>
    <taz id="1063006" edges="104387 104392 109119 109121 109123 4389 4390 4392 5475 6504 6533 6535 8771 9121 9123 9124 9125 9126 9128"/>
    <taz id="1063007" edges="4393 6604 9119 9151"/>
    <taz id="1063008" edges="100085 100399 104388 104389 104390 104393 104396 104398 105475 399 4377 4387 4388 4394 4398 6112 6114 6505 6506 85 8946 8947 8964 8966"/>
    <taz id="1063009" edges="100054 100055 104377 104394 104395 106604 4396 5476 55 6543 8962 8963 8965"/>
    <taz id="1063010" edges="104381 104382 104384 105476 4380 4381 4382 4384 4395 54 6146 6147 6542 6715 9207 9208 9209"/>
    <taz id="1063012" edges="106715 4379 5164 6135 9199 9201"/>
</tazs>
