<?xml version="1.0" encoding="UTF-8"?>

<!-- generated on 2023-07-13 07:54:14 by Eclipse SUMO netconvert Version 1.17.0
<configuration xmlns:xsi="http://www.w3.org/2001/XMLSchema-instance" xsi:noNamespaceSchemaLocation="http://sumo.dlr.de/xsd/netconvertConfiguration.xsd">

    <input>
        <node-files value="Corniche_base.nod.xml"/>
        <edge-files value="Corniche_base.edg.xml"/>
        <connection-files value="Corniche_base.con.xml"/>
        <tllogic-files value="Corniche_base.tll.xml"/>
        <type-files value="Corniche_base.typ.xml"/>
    </input>

    <output>
        <output-file value="Corniche_base.net.xml"/>
        <output.street-names value="true"/>
    </output>

</configuration>
-->

<net version="1.16" junctionCornerDetail="5" limitTurnSpeed="5.50" xmlns:xsi="http://www.w3.org/2001/XMLSchema-instance" xsi:noNamespaceSchemaLocation="http://sumo.dlr.de/xsd/net_file.xsd">

    <location netOffset="-551082.21,-2796701.55" convBoundary="0.00,0.00,5402.45,5153.89" origBoundary="50.750970,24.471963,51.653885,26.156379" projParameter="+proj=utm +zone=39 +ellps=WGS84 +datum=WGS84 +units=m +no_defs"/>

    <type id="10" priority="10" allow="rail"/>
    <type id="100" priority="100"/>
    <type id="11" priority="11"/>
    <type id="12" priority="12"/>
    <type id="13" priority="13"/>
    <type id="14" priority="14"/>
    <type id="15" priority="15"/>
    <type id="16" priority="16"/>
    <type id="17" priority="17"/>
    <type id="18" priority="18"/>
    <type id="19" priority="19"/>
    <type id="20" priority="20"/>
    <type id="21" priority="21"/>
    <type id="22" priority="22"/>
    <type id="23" priority="23"/>
    <type id="24" priority="24"/>
    <type id="25" priority="25"/>
    <type id="26" priority="26"/>
    <type id="27" priority="27"/>
    <type id="28" priority="28"/>
    <type id="29" priority="29"/>
    <type id="30" priority="30"/>
    <type id="31" priority="31"/>
    <type id="32" priority="32"/>
    <type id="33" priority="33"/>
    <type id="34" priority="34"/>
    <type id="35" priority="35"/>
    <type id="36" priority="36"/>
    <type id="37" priority="37"/>
    <type id="38" priority="38"/>
    <type id="39" priority="39"/>
    <type id="40" priority="40"/>
    <type id="41" priority="41"/>
    <type id="42" priority="42"/>
    <type id="43" priority="43"/>
    <type id="44" priority="44"/>
    <type id="45" priority="45"/>
    <type id="46" priority="46"/>
    <type id="47" priority="47"/>
    <type id="48" priority="48"/>
    <type id="49" priority="49"/>
    <type id="50" priority="50"/>
    <type id="51" priority="51"/>
    <type id="52" priority="52"/>
    <type id="53" priority="53"/>
    <type id="54" priority="54"/>
    <type id="55" priority="55"/>
    <type id="56" priority="56"/>
    <type id="57" priority="57"/>
    <type id="58" priority="58"/>
    <type id="59" priority="59"/>
    <type id="60" priority="60"/>
    <type id="61" priority="61"/>
    <type id="62" priority="62"/>
    <type id="63" priority="63"/>
    <type id="64" priority="64"/>
    <type id="65" priority="65"/>
    <type id="66" priority="66"/>
    <type id="67" priority="67"/>
    <type id="68" priority="68"/>
    <type id="69" priority="69"/>
    <type id="70" priority="70"/>
    <type id="71" priority="71"/>
    <type id="72" priority="72"/>
    <type id="73" priority="73"/>
    <type id="74" priority="74"/>
    <type id="75" priority="75"/>
    <type id="76" priority="76"/>
    <type id="77" priority="77"/>
    <type id="78" priority="78"/>
    <type id="79" priority="79"/>
    <type id="80" priority="80"/>
    <type id="81" priority="81"/>
    <type id="82" priority="82"/>
    <type id="83" priority="83"/>
    <type id="84" priority="84"/>
    <type id="85" priority="85"/>
    <type id="86" priority="86"/>
    <type id="87" priority="87"/>
    <type id="88" priority="88"/>
    <type id="89" priority="89"/>
    <type id="90" priority="90"/>
    <type id="91" priority="91"/>
    <type id="92" priority="92"/>
    <type id="93" priority="93"/>
    <type id="94" priority="94"/>
    <type id="95" priority="95"/>
    <type id="96" priority="96"/>
    <type id="97" priority="97"/>
    <type id="98" priority="98"/>
    <type id="99" priority="99"/>

    <edge id=":1089_0" function="internal">
        <lane id=":1089_0_0" index="0" speed="11.11" length="0.10" shape="1304.66,3375.10 1304.66,3375.10"/>
    </edge>
    <edge id=":1130_0" function="internal">
        <lane id=":1130_0_0" index="0" speed="13.89" length="14.33" shape="1856.83,4215.07 1842.49,4215.09"/>
    </edge>
    <edge id=":1130_1" function="internal">
        <lane id=":1130_1_0" index="0" speed="8.04" length="4.00" shape="1856.83,4215.07 1853.00,4214.50 1852.89,4214.43"/>
    </edge>
    <edge id=":1130_6" function="internal">
        <lane id=":1130_6_0" index="0" speed="8.04" length="10.17" shape="1852.89,4214.43 1850.26,4212.84 1848.60,4210.09 1848.02,4206.24"/>
    </edge>
    <edge id=":1130_2" function="internal">
        <lane id=":1130_2_0" index="0" speed="6.55" length="9.06" shape="1851.22,4206.22 1851.59,4208.68 1852.65,4210.44 1854.40,4211.50 1856.85,4211.87"/>
    </edge>
    <edge id=":1130_3" function="internal">
        <lane id=":1130_3_0" index="0" speed="8.00" length="14.19" shape="1851.22,4206.22 1850.70,4210.07 1849.08,4212.84 1846.34,4214.51 1842.49,4215.09"/>
    </edge>
    <edge id=":1130_4" function="internal">
        <lane id=":1130_4_0" index="0" speed="6.51" length="9.03" shape="1842.47,4211.89 1844.91,4211.52 1846.66,4210.46 1847.69,4208.70 1848.02,4206.24"/>
    </edge>
    <edge id=":1130_5" function="internal">
        <lane id=":1130_5_0" index="0" speed="13.89" length="14.38" shape="1842.47,4211.89 1856.85,4211.87"/>
    </edge>
    <edge id=":1131_0" function="internal">
        <lane id=":1131_0_0" index="0" speed="6.53" length="9.04" shape="1665.80,4216.56 1663.36,4216.93 1661.62,4218.00 1660.57,4219.75 1660.21,4222.21"/>
    </edge>
    <edge id=":1131_1" function="internal">
        <lane id=":1131_1_0" index="0" speed="13.89" length="14.36" shape="1665.80,4216.56 1651.44,4216.58"/>
    </edge>
    <edge id=":1131_2" function="internal">
        <lane id=":1131_2_0" index="0" speed="13.89" length="14.32" shape="1651.46,4213.38 1665.77,4213.36"/>
    </edge>
    <edge id=":1131_3" function="internal">
        <lane id=":1131_3_0" index="0" speed="8.00" length="4.01" shape="1651.46,4213.38 1655.29,4213.95 1655.41,4214.02"/>
    </edge>
    <edge id=":1131_6" function="internal">
        <lane id=":1131_6_0" index="0" speed="8.00" length="10.16" shape="1655.41,4214.02 1658.03,4215.61 1659.67,4218.36 1660.21,4222.21"/>
    </edge>
    <edge id=":1131_4" function="internal">
        <lane id=":1131_4_0" index="0" speed="6.51" length="9.02" shape="1657.01,4222.20 1656.67,4219.75 1655.63,4218.00 1653.88,4216.95 1651.44,4216.58"/>
    </edge>
    <edge id=":1131_5" function="internal">
        <lane id=":1131_5_0" index="0" speed="8.02" length="14.16" shape="1657.01,4222.20 1657.57,4218.36 1659.21,4215.61 1661.95,4213.94 1665.77,4213.36"/>
    </edge>
    <edge id=":1139_0" function="internal">
        <lane id=":1139_0_0" index="0" speed="6.30" length="9.04" shape="975.98,3329.38 973.46,3329.48 971.67,3330.38 970.59,3332.07 970.23,3334.55"/>
    </edge>
    <edge id=":1139_1" function="internal">
        <lane id=":1139_1_0" index="0" speed="11.11" length="13.48" shape="975.98,3329.38 972.47,3328.87 969.33,3328.00 966.49,3326.54 963.83,3324.29"/>
    </edge>
    <edge id=":1139_2" function="internal">
        <lane id=":1139_2_0" index="0" speed="11.11" length="11.31" shape="966.15,3322.08 968.49,3324.18 970.66,3325.30 973.11,3325.84 976.31,3326.20"/>
    </edge>
    <edge id=":1139_3" function="internal">
        <lane id=":1139_3_0" index="0" speed="11.11" length="13.48" shape="966.15,3322.08 968.24,3324.85 969.48,3327.80 970.08,3331.00 970.23,3334.55"/>
    </edge>
    <edge id=":1139_4" function="internal">
        <lane id=":1139_4_0" index="0" speed="11.11" length="11.16" shape="967.03,3334.55 967.02,3331.34 966.73,3328.90 965.79,3326.72 963.83,3324.29"/>
    </edge>
    <edge id=":1139_5" function="internal">
        <lane id=":1139_5_0" index="0" speed="7.83" length="14.59" shape="967.03,3334.55 967.61,3330.53 969.35,3327.80 972.25,3326.36 976.31,3326.20"/>
    </edge>
    <edge id=":1142_0" function="internal">
        <lane id=":1142_0_0" index="0" speed="13.89" length="0.31" shape="1656.38,4396.59 1656.38,4396.28"/>
    </edge>
    <edge id=":1142_1" function="internal">
        <lane id=":1142_1_0" index="0" speed="13.89" length="0.29" shape="1659.58,4396.30 1659.58,4396.59"/>
    </edge>
    <edge id=":1145_0" function="internal">
        <lane id=":1145_0_0" index="0" speed="3.65" length="4.67" shape="1012.19,3231.74 1011.75,3230.37 1011.94,3229.49 1012.75,3229.12 1014.19,3229.24"/>
    </edge>
    <edge id=":1159_0" function="internal">
        <lane id=":1159_0_0" index="0" speed="13.89" length="14.45" shape="1657.18,3734.28 1657.22,3719.83"/>
    </edge>
    <edge id=":1159_1" function="internal">
        <lane id=":1159_1_0" index="0" speed="8.00" length="4.11" shape="1657.18,3734.28 1657.72,3730.43 1657.83,3730.25"/>
    </edge>
    <edge id=":1159_6" function="internal">
        <lane id=":1159_6_0" index="0" speed="8.00" length="10.11" shape="1657.83,3730.25 1659.37,3727.67 1662.12,3726.02 1665.98,3725.47"/>
    </edge>
    <edge id=":1159_2" function="internal">
        <lane id=":1159_2_0" index="0" speed="6.50" length="9.04" shape="1665.98,3728.67 1663.52,3729.02 1661.77,3730.07 1660.72,3731.82 1660.38,3734.28"/>
    </edge>
    <edge id=":1159_3" function="internal">
        <lane id=":1159_3_0" index="0" speed="7.99" length="14.22" shape="1665.98,3728.67 1662.12,3728.12 1659.37,3726.46 1657.74,3723.70 1657.22,3719.83"/>
    </edge>
    <edge id=":1159_4" function="internal">
        <lane id=":1159_4_0" index="0" speed="6.49" length="9.03" shape="1660.42,3719.86 1660.75,3722.31 1661.79,3724.07 1663.53,3725.12 1665.98,3725.47"/>
    </edge>
    <edge id=":1159_5" function="internal">
        <lane id=":1159_5_0" index="0" speed="13.89" length="14.42" shape="1660.42,3719.86 1660.38,3734.28"/>
    </edge>
    <edge id=":1160_0" function="internal">
        <lane id=":1160_0_0" index="0" speed="11.11" length="0.42" shape="1812.07,3899.11 1811.94,3899.12 1811.86,3899.13 1811.77,3899.13 1811.65,3899.13"/>
    </edge>
    <edge id=":1160_1" function="internal">
        <lane id=":1160_1_0" index="0" speed="11.11" length="0.14" shape="1811.65,3895.93 1811.69,3895.93 1811.72,3895.93 1811.75,3895.93 1811.79,3895.92"/>
    </edge>
    <edge id=":1183_0" function="internal">
        <lane id=":1183_0_0" index="0" speed="13.89" length="14.42" shape="1657.44,3904.54 1657.40,3890.12"/>
    </edge>
    <edge id=":1183_1" function="internal">
        <lane id=":1183_1_0" index="0" speed="7.99" length="4.09" shape="1657.44,3904.54 1657.97,3900.68 1658.07,3900.51"/>
    </edge>
    <edge id=":1183_6" function="internal">
        <lane id=":1183_6_0" index="0" speed="7.99" length="10.13" shape="1658.07,3900.51 1659.61,3897.92 1662.36,3896.27 1666.22,3895.72"/>
    </edge>
    <edge id=":1183_2" function="internal">
        <lane id=":1183_2_0" index="0" speed="6.49" length="9.03" shape="1666.22,3898.92 1663.77,3899.27 1662.02,3900.32 1660.97,3902.07 1660.64,3904.52"/>
    </edge>
    <edge id=":1183_3" function="internal">
        <lane id=":1183_3_0" index="0" speed="8.01" length="14.21" shape="1666.22,3898.92 1662.36,3898.37 1659.60,3896.71 1657.95,3893.96 1657.40,3890.12"/>
    </edge>
    <edge id=":1183_4" function="internal">
        <lane id=":1183_4_0" index="0" speed="6.52" length="9.05" shape="1660.60,3890.11 1660.95,3892.56 1662.01,3894.31 1663.76,3895.37 1666.22,3895.72"/>
    </edge>
    <edge id=":1183_5" function="internal">
        <lane id=":1183_5_0" index="0" speed="13.89" length="14.41" shape="1660.60,3890.11 1660.64,3904.52"/>
    </edge>
    <edge id=":1185_0" function="internal">
        <lane id=":1185_0_0" index="0" speed="6.55" length="9.12" shape="1846.39,4008.81 1846.02,4006.32 1844.96,4004.54 1843.20,4003.47 1840.75,4003.12"/>
    </edge>
    <edge id=":1185_1" function="internal">
        <lane id=":1185_1_0" index="0" speed="7.95" length="14.29" shape="1846.39,4008.81 1846.92,4004.91 1848.57,4002.15 1851.34,4000.53 1855.24,4000.04"/>
    </edge>
    <edge id=":1185_2" function="internal">
        <lane id=":1185_2_0" index="0" speed="6.45" length="9.03" shape="1855.19,4003.24 1852.72,4003.55 1850.97,4004.58 1849.92,4006.32 1849.59,4008.78"/>
    </edge>
    <edge id=":1185_3" function="internal">
        <lane id=":1185_3_0" index="0" speed="13.89" length="14.43" shape="1855.19,4003.24 1840.75,4003.12"/>
    </edge>
    <edge id=":1185_4" function="internal">
        <lane id=":1185_4_0" index="0" speed="13.89" length="14.49" shape="1840.75,3999.92 1855.24,4000.04"/>
    </edge>
    <edge id=":1185_5" function="internal">
        <lane id=":1185_5_0" index="0" speed="8.04" length="4.12" shape="1840.75,3999.92 1844.59,4000.47 1844.80,4000.59"/>
    </edge>
    <edge id=":1185_6" function="internal">
        <lane id=":1185_6_0" index="0" speed="8.04" length="10.13" shape="1844.80,4000.59 1847.34,4002.13 1849.01,4004.90 1849.59,4008.78"/>
    </edge>
    <edge id=":1191_0" function="internal">
        <lane id=":1191_0_0" index="0" speed="6.51" length="9.02" shape="844.81,3399.33 842.36,3399.67 840.61,3400.71 839.55,3402.45 839.18,3404.89"/>
    </edge>
    <edge id=":1191_1" function="internal">
        <lane id=":1191_1_0" index="0" speed="8.09" length="14.13" shape="844.81,3399.33 840.97,3398.78 838.19,3397.15 836.47,3394.45 835.79,3390.68"/>
    </edge>
    <edge id=":1191_2" function="internal">
        <lane id=":1191_2_0" index="0" speed="6.62" length="9.10" shape="838.99,3390.58 839.43,3393.00 840.54,3394.73 842.34,3395.77 844.82,3396.13"/>
    </edge>
    <edge id=":1191_3" function="internal">
        <lane id=":1191_3_0" index="0" speed="11.11" length="14.32" shape="838.99,3390.58 839.18,3404.89"/>
    </edge>
    <edge id=":1191_4" function="internal">
        <lane id=":1191_4_0" index="0" speed="11.11" length="14.19" shape="835.98,3404.87 835.79,3390.68"/>
    </edge>
    <edge id=":1191_5" function="internal">
        <lane id=":1191_5_0" index="0" speed="8.00" length="14.17" shape="835.98,3404.87 836.56,3401.03 838.22,3398.30 840.98,3396.66 844.82,3396.13"/>
    </edge>
    <edge id=":1192_0" function="internal">
        <lane id=":1192_0_0" index="0" speed="6.38" length="9.02" shape="844.55,3471.97 842.09,3472.35 840.37,3473.42 839.42,3475.20 839.22,3477.68"/>
    </edge>
    <edge id=":1192_1" function="internal">
        <lane id=":1192_1_0" index="0" speed="11.11" length="14.90" shape="844.55,3471.97 829.65,3471.86"/>
    </edge>
    <edge id=":1192_2" function="internal">
        <lane id=":1192_2_0" index="0" speed="8.01" length="14.36" shape="844.55,3471.97 840.62,3471.45 837.81,3469.81 836.14,3467.05 835.61,3463.17"/>
    </edge>
    <edge id=":1192_3" function="internal">
        <lane id=":1192_3_0" index="0" speed="6.51" length="9.15" shape="838.81,3463.19 839.15,3465.65 840.22,3467.40 842.01,3468.44 844.53,3468.77"/>
    </edge>
    <edge id=":1192_4" function="internal">
        <lane id=":1192_4_0" index="0" speed="11.11" length="14.49" shape="838.81,3463.19 839.22,3477.68"/>
    </edge>
    <edge id=":1192_5" function="internal">
        <lane id=":1192_5_0" index="0" speed="8.02" length="14.43" shape="838.81,3463.19 838.21,3467.06 836.49,3469.80 833.64,3471.40 829.65,3471.86"/>
    </edge>
    <edge id=":1192_6" function="internal">
        <lane id=":1192_6_0" index="0" speed="6.53" length="9.21" shape="829.73,3468.66 832.29,3468.37 834.12,3467.35 835.23,3465.62 835.61,3463.17"/>
    </edge>
    <edge id=":1192_7" function="internal">
        <lane id=":1192_7_0" index="0" speed="11.11" length="14.80" shape="829.73,3468.66 844.53,3468.77"/>
    </edge>
    <edge id=":1192_8" function="internal">
        <lane id=":1192_8_0" index="0" speed="8.38" length="14.66" shape="829.73,3468.66 833.67,3469.30 836.57,3471.02 838.42,3473.81 839.22,3477.68"/>
    </edge>
    <edge id=":1192_9" function="internal">
        <lane id=":1192_9_0" index="0" speed="6.39" length="9.20" shape="834.77,3477.89 834.69,3475.30 833.80,3473.43 832.13,3472.29 829.65,3471.86"/>
    </edge>
    <edge id=":1192_10" function="internal">
        <lane id=":1192_10_0" index="0" speed="11.11" length="14.75" shape="834.77,3477.89 835.12,3474.20 835.37,3470.54 835.54,3466.88 835.61,3463.17"/>
    </edge>
    <edge id=":1192_11" function="internal">
        <lane id=":1192_11_0" index="0" speed="8.53" length="14.88" shape="834.77,3477.89 835.74,3473.93 837.68,3471.09 840.62,3469.37 844.53,3468.77"/>
    </edge>
    <edge id=":1201_0" function="internal">
        <lane id=":1201_0_0" index="0" speed="11.11" length="14.45" shape="970.11,3391.04 970.01,3405.49"/>
    </edge>
    <edge id=":1201_1" function="internal">
        <lane id=":1201_1_0" index="0" speed="8.00" length="14.22" shape="970.11,3391.04 969.55,3394.89 967.89,3397.63 965.13,3399.28 961.27,3399.81"/>
    </edge>
    <edge id=":1201_2" function="internal">
        <lane id=":1201_2_0" index="0" speed="3.65" length="4.67" shape="970.11,3391.04 969.31,3392.23 968.51,3392.63 967.71,3392.23 966.91,3391.03"/>
    </edge>
    <edge id=":1201_3" function="internal">
        <lane id=":1201_3_0" index="0" speed="6.51" length="9.05" shape="961.28,3396.61 963.74,3396.27 965.50,3395.23 966.56,3393.48 966.91,3391.03"/>
    </edge>
    <edge id=":1201_4" function="internal">
        <lane id=":1201_4_0" index="0" speed="7.99" length="14.23" shape="961.28,3396.61 965.14,3397.18 967.88,3398.85 969.50,3401.62 970.01,3405.49"/>
    </edge>
    <edge id=":1201_5" function="internal">
        <lane id=":1201_5_0" index="0" speed="3.65" length="4.67" shape="961.28,3396.61 962.48,3397.42 962.87,3398.22 962.47,3399.02 961.27,3399.81"/>
    </edge>
    <edge id=":1201_6" function="internal">
        <lane id=":1201_6_0" index="0" speed="6.49" length="9.03" shape="966.81,3405.45 966.49,3402.99 965.46,3401.23 963.72,3400.17 961.27,3399.81"/>
    </edge>
    <edge id=":1201_7" function="internal">
        <lane id=":1201_7_0" index="0" speed="11.11" length="14.42" shape="966.81,3405.45 966.91,3391.03"/>
    </edge>
    <edge id=":1201_8" function="internal">
        <lane id=":1201_8_0" index="0" speed="3.65" length="4.67" shape="966.81,3405.45 967.62,3404.26 968.43,3403.87 969.22,3404.28 970.01,3405.49"/>
    </edge>
    <edge id=":1219_0" function="internal">
        <lane id=":1219_0_0" index="0" speed="3.65" length="4.67" shape="956.56,3181.51 957.36,3180.31 958.16,3179.91 958.96,3180.31 959.76,3181.51"/>
    </edge>
    <edge id=":1220_0" function="internal">
        <lane id=":1220_0_0" index="0" speed="11.11" length="14.33" shape="923.26,3281.81 913.28,3271.53"/>
    </edge>
    <edge id=":1220_1" function="internal">
        <lane id=":1220_1_0" index="0" speed="8.22" length="14.25" shape="923.26,3281.81 921.07,3278.72 920.36,3275.57 921.13,3272.38 923.38,3269.13"/>
    </edge>
    <edge id=":1220_2" function="internal">
        <lane id=":1220_2_0" index="0" speed="6.76" length="9.34" shape="925.74,3271.29 924.25,3273.44 923.72,3275.54 924.16,3277.59 925.58,3279.60"/>
    </edge>
    <edge id=":1220_3" function="internal">
        <lane id=":1220_3_0" index="0" speed="7.91" length="14.39" shape="925.74,3271.29 922.67,3273.81 919.57,3274.69 916.44,3273.93 913.28,3271.53"/>
    </edge>
    <edge id=":1220_4" function="internal">
        <lane id=":1220_4_0" index="0" speed="6.40" length="9.04" shape="915.56,3269.28 917.54,3270.79 919.51,3271.27 921.46,3270.72 923.38,3269.13"/>
    </edge>
    <edge id=":1220_5" function="internal">
        <lane id=":1220_5_0" index="0" speed="11.11" length="14.39" shape="915.56,3269.28 925.58,3279.60"/>
    </edge>
    <edge id=":1230_0" function="internal">
        <lane id=":1230_0_0" index="0" speed="11.11" length="11.88" shape="1027.49,3346.22 1017.03,3340.59"/>
    </edge>
    <edge id=":1230_1" function="internal">
        <lane id=":1230_1_0" index="0" speed="6.67" length="10.10" shape="1027.49,3346.22 1026.50,3345.03 1026.50,3343.12 1027.49,3340.51 1029.46,3337.19"/>
    </edge>
    <edge id=":1230_2" function="internal">
        <lane id=":1230_2_0" index="0" speed="3.65" length="4.67" shape="1027.49,3346.22 1026.84,3344.93 1026.88,3344.04 1027.63,3343.54 1029.06,3343.43"/>
    </edge>
    <edge id=":1230_3" function="internal">
        <lane id=":1230_3_0" index="0" speed="6.97" length="9.61" shape="1018.50,3337.75 1020.89,3338.58 1023.08,3338.46 1025.05,3337.40 1026.81,3335.41"/>
    </edge>
    <edge id=":1230_4" function="internal">
        <lane id=":1230_4_0" index="0" speed="11.11" length="11.99" shape="1018.50,3337.75 1029.06,3343.43"/>
    </edge>
    <edge id=":1230_5" function="internal">
        <lane id=":1230_5_0" index="0" speed="3.65" length="4.67" shape="1018.50,3337.75 1019.20,3339.01 1019.18,3339.91 1018.46,3340.43 1017.03,3340.59"/>
    </edge>
    <edge id=":1230_6" function="internal">
        <lane id=":1230_6_0" index="0" speed="6.58" length="9.11" shape="1019.36,3348.27 1020.17,3345.86 1020.05,3343.77 1019.00,3342.02 1017.03,3340.59"/>
    </edge>
    <edge id=":1230_7" function="internal">
        <lane id=":1230_7_0" index="0" speed="13.89" length="14.67" shape="1019.36,3348.27 1021.33,3344.31 1022.76,3341.65 1024.36,3339.08 1026.81,3335.41"/>
        <lane id=":1230_7_1" index="1" speed="13.89" length="14.67" shape="1022.23,3349.68 1024.14,3345.84 1025.54,3343.26 1027.09,3340.76 1029.46,3337.19"/>
    </edge>
    <edge id=":1230_9" function="internal">
        <lane id=":1230_9_0" index="0" speed="6.71" length="10.10" shape="1022.23,3349.68 1024.12,3346.33 1025.89,3344.17 1027.54,3343.20 1029.06,3343.43"/>
    </edge>
    <edge id=":1238_0" function="internal">
        <lane id=":1238_0_0" index="0" speed="6.43" length="9.03" shape="834.70,3357.74 834.26,3355.29 833.14,3353.59 831.34,3352.66 828.86,3352.47"/>
    </edge>
    <edge id=":1238_1" function="internal">
        <lane id=":1238_1_0" index="0" speed="11.11" length="14.29" shape="834.70,3357.74 834.73,3343.44"/>
    </edge>
    <edge id=":1238_2" function="internal">
        <lane id=":1238_2_0" index="0" speed="11.11" length="14.06" shape="837.92,3343.57 837.89,3357.63"/>
    </edge>
    <edge id=":1238_3" function="internal">
        <lane id=":1238_3_0" index="0" speed="8.33" length="14.16" shape="837.92,3343.57 837.23,3347.24 835.49,3349.94 832.70,3351.69 828.86,3352.47"/>
    </edge>
    <edge id=":1238_4" function="internal">
        <lane id=":1238_4_0" index="0" speed="6.89" length="9.40" shape="828.64,3349.28 831.22,3348.76 833.10,3347.62 834.26,3345.84 834.73,3343.44"/>
    </edge>
    <edge id=":1238_5" function="internal">
        <lane id=":1238_5_0" index="0" speed="7.94" length="14.33" shape="828.64,3349.28 832.58,3349.57 835.43,3351.06 837.20,3353.74 837.89,3357.63"/>
    </edge>
    <edge id=":1250_0" function="internal">
        <lane id=":1250_0_0" index="0" speed="11.11" length="6.60" shape="1977.00,4002.66 1975.11,4002.66 1973.82,4003.12 1972.54,4003.67 1970.62,4003.95"/>
    </edge>
    <edge id=":1250_1" function="internal">
        <lane id=":1250_1_0" index="0" speed="11.11" length="6.77" shape="1970.60,4000.75 1972.57,4001.02 1973.90,4001.58 1975.22,4002.04 1977.16,4001.97"/>
    </edge>
    <edge id=":1251_0" function="internal">
        <lane id=":1251_0_0" index="0" speed="4.02" length="4.20" shape="1712.63,4724.98 1712.41,4723.70 1712.68,4722.94 1713.44,4722.71 1714.71,4723.00"/>
    </edge>
    <edge id=":1252_0" function="internal">
        <lane id=":1252_0_0" index="0" speed="7.46" length="7.94" shape="1729.09,4729.16 1731.28,4729.50 1733.10,4729.47 1734.56,4729.09 1735.66,4728.35"/>
        <lane id=":1252_0_1" index="1" speed="8.45" length="7.94" shape="1729.09,4729.16 1730.79,4729.58 1733.61,4730.23 1736.39,4730.71 1737.93,4730.61"/>
    </edge>
    <edge id=":1252_2" function="internal">
        <lane id=":1252_2_0" index="0" speed="22.22" length="7.04" shape="1730.71,4733.40 1735.66,4728.35"/>
        <lane id=":1252_2_1" index="1" speed="22.22" length="7.04" shape="1732.99,4735.65 1737.93,4730.61"/>
        <lane id=":1252_2_2" index="2" speed="22.22" length="7.04" shape="1735.27,4737.89 1740.19,4732.87"/>
        <lane id=":1252_2_3" index="3" speed="22.22" length="7.04" shape="1737.55,4740.14 1742.45,4735.14"/>
    </edge>
    <edge id=":1253_0" function="internal">
        <lane id=":1253_0_0" index="0" speed="6.52" length="9.05" shape="1665.53,4332.23 1663.08,4332.57 1661.32,4333.62 1660.26,4335.37 1659.89,4337.81"/>
    </edge>
    <edge id=":1253_1" function="internal">
        <lane id=":1253_1_0" index="0" speed="8.00" length="14.20" shape="1665.53,4332.23 1661.68,4331.67 1658.93,4330.02 1657.29,4327.26 1656.75,4323.41"/>
    </edge>
    <edge id=":1253_2" function="internal">
        <lane id=":1253_2_0" index="0" speed="6.50" length="9.03" shape="1659.95,4323.42 1660.29,4325.87 1661.34,4327.62 1663.09,4328.67 1665.54,4329.03"/>
    </edge>
    <edge id=":1253_3" function="internal">
        <lane id=":1253_3_0" index="0" speed="13.89" length="14.40" shape="1659.95,4323.42 1659.89,4337.81"/>
    </edge>
    <edge id=":1253_4" function="internal">
        <lane id=":1253_4_0" index="0" speed="13.89" length="14.39" shape="1656.69,4337.80 1656.75,4323.41"/>
    </edge>
    <edge id=":1253_5" function="internal">
        <lane id=":1253_5_0" index="0" speed="8.01" length="4.05" shape="1656.69,4337.80 1657.26,4333.96 1657.35,4333.81"/>
    </edge>
    <edge id=":1253_6" function="internal">
        <lane id=":1253_6_0" index="0" speed="8.01" length="10.14" shape="1657.35,4333.81 1658.93,4331.21 1661.68,4329.57 1665.54,4329.03"/>
    </edge>
    <edge id=":1254_0" function="internal">
        <lane id=":1254_0_0" index="0" speed="6.08" length="7.70" shape="1661.02,4591.64 1658.94,4591.32 1657.45,4590.42 1656.56,4588.92 1656.26,4586.83"/>
    </edge>
    <edge id=":1254_1" function="internal">
        <lane id=":1254_1_0" index="0" speed="3.90" length="2.57" shape="1659.46,4586.84 1659.56,4587.53 1659.86,4588.03 1660.36,4588.33 1661.05,4588.44"/>
    </edge>
    <edge id=":1256_0" function="internal">
        <lane id=":1256_0_0" index="0" speed="3.90" length="2.57" shape="1459.93,4210.82 1460.03,4211.52 1460.33,4212.02 1460.83,4212.32 1461.53,4212.43"/>
    </edge>
    <edge id=":1256_1" function="internal">
        <lane id=":1256_1_0" index="0" speed="6.08" length="7.72" shape="1461.51,4215.63 1459.42,4215.32 1457.93,4214.41 1457.03,4212.91 1456.73,4210.82"/>
    </edge>
    <edge id=":1257_0" function="internal">
        <lane id=":1257_0_0" index="0" speed="13.89" length="14.40" shape="1457.04,4008.57 1457.06,3994.17"/>
    </edge>
    <edge id=":1257_1" function="internal">
        <lane id=":1257_1_0" index="0" speed="8.01" length="4.06" shape="1457.04,4008.57 1457.60,4004.72 1457.69,4004.57"/>
    </edge>
    <edge id=":1257_2" function="internal">
        <lane id=":1257_2_0" index="0" speed="3.65" length="1.44" shape="1457.04,4008.57 1457.84,4007.37"/>
    </edge>
    <edge id=":1257_9" function="internal">
        <lane id=":1257_9_0" index="0" speed="8.01" length="10.13" shape="1457.69,4004.57 1459.25,4001.98 1462.00,4000.33 1465.86,3999.77"/>
    </edge>
    <edge id=":1257_10" function="internal">
        <lane id=":1257_10_0" index="0" speed="3.65" length="3.23" shape="1457.84,4007.37 1458.64,4006.97 1459.44,4007.37 1460.24,4008.57"/>
    </edge>
    <edge id=":1257_3" function="internal">
        <lane id=":1257_3_0" index="0" speed="6.52" length="9.04" shape="1465.86,4002.97 1463.40,4003.32 1461.65,4004.38 1460.59,4006.13 1460.24,4008.57"/>
    </edge>
    <edge id=":1257_4" function="internal">
        <lane id=":1257_4_0" index="0" speed="8.00" length="14.20" shape="1465.86,4002.97 1462.01,4002.43 1459.25,4000.78 1457.61,3998.02 1457.06,3994.17"/>
    </edge>
    <edge id=":1257_5" function="internal">
        <lane id=":1257_5_0" index="0" speed="3.65" length="4.67" shape="1465.86,4002.97 1464.66,4002.17 1464.26,4001.37 1464.66,4000.57 1465.86,3999.77"/>
    </edge>
    <edge id=":1257_6" function="internal">
        <lane id=":1257_6_0" index="0" speed="6.50" length="9.03" shape="1460.26,3994.17 1460.61,3996.63 1461.66,3998.38 1463.41,3999.42 1465.86,3999.77"/>
    </edge>
    <edge id=":1257_7" function="internal">
        <lane id=":1257_7_0" index="0" speed="13.89" length="14.40" shape="1460.26,3994.17 1460.24,4008.57"/>
    </edge>
    <edge id=":1257_8" function="internal">
        <lane id=":1257_8_0" index="0" speed="3.65" length="1.44" shape="1460.26,3994.17 1459.46,3995.37"/>
    </edge>
    <edge id=":1257_11" function="internal">
        <lane id=":1257_11_0" index="0" speed="3.65" length="3.23" shape="1459.46,3995.37 1458.66,3995.77 1457.86,3995.37 1457.06,3994.17"/>
    </edge>
    <edge id=":1258_0" function="internal">
        <lane id=":1258_0_0" index="0" speed="6.51" length="9.03" shape="1457.33,3819.21 1456.98,3816.76 1455.94,3815.01 1454.19,3813.95 1451.74,3813.60"/>
    </edge>
    <edge id=":1258_1" function="internal">
        <lane id=":1258_1_0" index="0" speed="8.00" length="14.20" shape="1457.33,3819.21 1457.89,3815.36 1459.54,3812.61 1462.29,3810.97 1466.15,3810.43"/>
    </edge>
    <edge id=":1258_2" function="internal">
        <lane id=":1258_2_0" index="0" speed="6.51" length="9.03" shape="1466.14,3813.63 1463.69,3813.97 1461.94,3815.02 1460.88,3816.77 1460.53,3819.22"/>
    </edge>
    <edge id=":1258_3" function="internal">
        <lane id=":1258_3_0" index="0" speed="13.89" length="14.40" shape="1466.14,3813.63 1451.74,3813.60"/>
    </edge>
    <edge id=":1258_4" function="internal">